<?xml version="1.0" encoding="UTF-8"?>

<!-- generated on 2025-04-20 01:12:15 by Eclipse SUMO netedit Version 1.20.0
<configuration xmlns:xsi="http://www.w3.org/2001/XMLSchema-instance" xsi:noNamespaceSchemaLocation="http://sumo.dlr.de/xsd/neteditConfiguration.xsd">

    <input>
        <sumo-net-file value="/home/pepe/Descargas/prueba_project1/mapa.net.xml"/>
    </input>

    <output>
        <output-file value="/home/pepe/Descargas/prueba_project1/mapa.net.xml"/>
    </output>

    <processing>
        <geometry.min-radius.fix.railways value="false"/>
        <geometry.max-grade.fix value="false"/>
        <offset.disable-normalization value="true"/>
        <lefthand value="0"/>
    </processing>

    <junctions>
        <no-turnarounds value="true"/>
        <junctions.corner-detail value="5"/>
        <junctions.limit-turn-speed value="5.50"/>
        <rectangular-lane-cut value="0"/>
    </junctions>

    <pedestrian>
        <walkingareas value="0"/>
    </pedestrian>

</configuration>
-->

<net version="1.20" junctionCornerDetail="5" limitTurnSpeed="5.50" xmlns:xsi="http://www.w3.org/2001/XMLSchema-instance" xsi:noNamespaceSchemaLocation="http://sumo.dlr.de/xsd/net_file.xsd">

    <location netOffset="-721100.85,320892.53" convBoundary="549.90,263.73,882.47,618.63" origBoundary="-79.010900,-2.901422,-78.996765,-2.895193" projParameter="+proj=utm +zone=17 +ellps=WGS84 +datum=WGS84 +units=m +no_defs"/>

    <type id="highway.footway" priority="1" numLanes="1" speed="2.78" allow="pedestrian" oneway="1" width="2.00"/>
    <type id="highway.pedestrian" priority="1" numLanes="1" speed="2.78" allow="pedestrian" oneway="1" width="2.00"/>
    <type id="highway.residential" priority="3" numLanes="1" speed="13.89" disallow="tram rail_urban rail rail_electric rail_fast ship container cable_car subway aircraft wheelchair scooter drone" oneway="0"/>

    <edge id=":12013799485_0" function="internal">
        <lane id=":12013799485_0_0" index="0" disallow="tram rail_urban rail rail_electric rail_fast ship container cable_car subway aircraft wheelchair scooter drone" speed="8.33" length="4.93" shape="664.95,398.54 669.65,397.20"/>
        <lane id=":12013799485_0_1" index="1" disallow="tram rail_urban rail rail_electric rail_fast ship container cable_car subway aircraft wheelchair scooter drone" speed="8.33" length="4.93" shape="665.79,401.62 670.57,400.26"/>
    </edge>
    <edge id=":12013799521_0" function="internal">
        <lane id=":12013799521_0_0" index="0" disallow="tram rail_urban rail rail_electric rail_fast ship container cable_car subway aircraft wheelchair scooter drone" speed="8.33" length="4.99" shape="764.30,432.21 765.26,437.10"/>
        <lane id=":12013799521_0_1" index="1" disallow="tram rail_urban rail rail_electric rail_fast ship container cable_car subway aircraft wheelchair scooter drone" speed="8.33" length="4.99" shape="761.16,432.82 762.12,437.72"/>
    </edge>
    <edge id=":12013799523_0" function="internal">
        <lane id=":12013799523_0_0" index="0" disallow="tram rail_urban rail rail_electric rail_fast ship container cable_car subway aircraft wheelchair scooter drone" speed="8.33" length="5.01" shape="659.30,417.68 658.34,412.77"/>
        <lane id=":12013799523_0_1" index="1" disallow="tram rail_urban rail rail_electric rail_fast ship container cable_car subway aircraft wheelchair scooter drone" speed="8.33" length="5.01" shape="662.44,417.08 661.49,412.16"/>
    </edge>
    <edge id=":12013799524_0" function="internal">
        <lane id=":12013799524_0_0" index="0" disallow="tram rail_urban rail rail_electric rail_fast ship container cable_car subway aircraft wheelchair scooter drone" speed="8.33" length="5.00" shape="667.09,458.06 666.14,453.15"/>
        <lane id=":12013799524_0_1" index="1" disallow="tram rail_urban rail rail_electric rail_fast ship container cable_car subway aircraft wheelchair scooter drone" speed="8.33" length="5.00" shape="670.23,457.45 669.29,452.54"/>
    </edge>
    <edge id=":12013799525_0" function="internal">
        <lane id=":12013799525_0_0" index="0" disallow="tram rail_urban rail rail_electric rail_fast ship container cable_car subway aircraft wheelchair scooter drone" speed="8.33" length="3.71" shape="741.65,376.69 745.24,375.73"/>
        <lane id=":12013799525_0_1" index="1" disallow="tram rail_urban rail rail_electric rail_fast ship container cable_car subway aircraft wheelchair scooter drone" speed="8.33" length="3.71" shape="742.49,379.78 746.07,378.82"/>
    </edge>
    <edge id=":12013799526_0" function="internal">
        <lane id=":12013799526_0_0" index="0" disallow="tram rail_urban rail rail_electric rail_fast ship container cable_car subway aircraft wheelchair scooter drone" speed="8.33" length="4.69" shape="754.73,382.52 755.62,387.13"/>
        <lane id=":12013799526_0_1" index="1" disallow="tram rail_urban rail rail_electric rail_fast ship container cable_car subway aircraft wheelchair scooter drone" speed="8.33" length="4.69" shape="751.59,383.13 752.48,387.73"/>
    </edge>
    <edge id=":12013799527_0" function="internal">
        <lane id=":12013799527_0_0" index="0" disallow="tram rail_urban rail rail_electric rail_fast ship container cable_car subway aircraft wheelchair scooter drone" speed="8.33" length="4.05" shape="767.34,487.63 763.41,488.63"/>
        <lane id=":12013799527_0_1" index="1" disallow="tram rail_urban rail rail_electric rail_fast ship container cable_car subway aircraft wheelchair scooter drone" speed="8.33" length="4.05" shape="766.55,484.53 762.62,485.53"/>
    </edge>
    <edge id=":12013799528_0" function="internal">
        <lane id=":12013799528_0_0" index="0" disallow="tram rail_urban rail rail_electric rail_fast ship container cable_car subway aircraft wheelchair scooter drone" speed="8.33" length="3.43" shape="772.79,475.41 773.45,478.78"/>
        <lane id=":12013799528_0_1" index="1" disallow="tram rail_urban rail rail_electric rail_fast ship container cable_car subway aircraft wheelchair scooter drone" speed="8.33" length="3.43" shape="769.65,476.03 770.31,479.39"/>
    </edge>
    <edge id=":12013799529_0" function="internal">
        <lane id=":12013799529_0_0" index="0" disallow="tram rail_urban rail rail_electric rail_fast ship container cable_car subway aircraft wheelchair scooter drone" speed="8.33" length="2.74" shape="686.72,508.23 684.07,508.91"/>
        <lane id=":12013799529_0_1" index="1" disallow="tram rail_urban rail rail_electric rail_fast ship container cable_car subway aircraft wheelchair scooter drone" speed="8.33" length="2.74" shape="685.93,505.13 683.27,505.81"/>
    </edge>
    <edge id=":12013799530_0" function="internal">
        <lane id=":12013799530_0_0" index="0" disallow="tram rail_urban rail rail_electric rail_fast ship container cable_car subway aircraft wheelchair scooter drone" speed="8.33" length="3.54" shape="675.76,502.96 675.09,499.49"/>
        <lane id=":12013799530_0_1" index="1" disallow="tram rail_urban rail rail_electric rail_fast ship container cable_car subway aircraft wheelchair scooter drone" speed="8.33" length="3.54" shape="678.90,502.35 678.23,498.88"/>
    </edge>
    <edge id=":4053431578_0" function="internal">
        <lane id=":4053431578_0_0" index="0" disallow="tram rail_urban rail rail_electric rail_fast ship container cable_car subway aircraft wheelchair scooter drone" speed="8.33" length="5.04" shape="583.40,423.24 588.26,421.92"/>
    </edge>
    <edge id=":620530034_0" function="internal">
        <lane id=":620530034_0_0" index="0" disallow="tram rail_urban rail rail_electric rail_fast ship container cable_car subway aircraft wheelchair scooter drone" speed="8.33" length="5.00" shape="668.21,463.87 667.26,458.96"/>
        <lane id=":620530034_0_1" index="1" disallow="tram rail_urban rail rail_electric rail_fast ship container cable_car subway aircraft wheelchair scooter drone" speed="8.33" length="5.00" shape="671.35,463.26 670.40,458.35"/>
    </edge>
    <edge id=":A39_0" function="internal">
        <lane id=":A39_0_0" index="0" disallow="tram rail_urban rail rail_electric rail_fast ship container cable_car subway aircraft wheelchair scooter drone" speed="6.70" length="10.07" shape="679.77,515.87 678.91,513.52 677.33,512.07 675.03,511.52 672.00,511.88"/>
    </edge>
    <edge id=":A39_1" function="internal">
        <lane id=":A39_1_0" index="0" disallow="tram rail_urban rail rail_electric rail_fast ship container cable_car subway aircraft wheelchair scooter drone" speed="8.33" length="13.36" shape="679.77,515.87 678.96,512.73 677.93,510.12 676.83,507.21 675.80,503.16"/>
        <lane id=":A39_1_1" index="1" disallow="tram rail_urban rail rail_electric rail_fast ship container cable_car subway aircraft wheelchair scooter drone" speed="8.33" length="13.36" shape="679.77,515.87 679.45,512.63 679.50,509.82 679.48,506.70 678.94,502.55"/>
    </edge>
    <edge id=":A39_3" function="internal">
        <lane id=":A39_3_0" index="0" disallow="tram rail_urban rail rail_electric rail_fast ship container cable_car subway aircraft wheelchair scooter drone" speed="8.33" length="12.20" shape="683.87,508.96 672.00,511.88"/>
        <lane id=":A39_3_1" index="1" disallow="tram rail_urban rail rail_electric rail_fast ship container cable_car subway aircraft wheelchair scooter drone" speed="8.33" length="12.20" shape="683.08,505.86 671.26,508.76"/>
    </edge>
    <edge id=":A39_5" function="internal">
        <lane id=":A39_5_0" index="0" disallow="tram rail_urban rail rail_electric rail_fast ship container cable_car subway aircraft wheelchair scooter drone" speed="5.38" length="6.10" shape="683.08,505.86 681.57,505.97 680.38,505.46 679.50,504.32 678.94,502.55"/>
    </edge>
    <edge id=":D66_0" function="internal">
        <lane id=":D66_0_0" index="0" disallow="tram rail_urban rail rail_electric rail_fast ship container cable_car subway aircraft wheelchair scooter drone" speed="7.35" length="11.65" shape="779.94,483.01 776.96,484.12 775.04,485.93 774.17,488.43 774.36,491.62"/>
    </edge>
    <edge id=":D66_1" function="internal">
        <lane id=":D66_1_0" index="0" disallow="tram rail_urban rail rail_electric rail_fast ship container cable_car subway aircraft wheelchair scooter drone" speed="8.33" length="13.28" shape="779.94,483.01 776.84,483.95 774.31,485.08 771.49,486.33 767.53,487.58"/>
        <lane id=":D66_1_1" index="1" disallow="tram rail_urban rail rail_electric rail_fast ship container cable_car subway aircraft wheelchair scooter drone" speed="8.33" length="13.28" shape="779.94,483.01 776.72,483.46 773.92,483.53 770.83,483.71 766.74,484.48"/>
    </edge>
    <edge id=":D66_3" function="internal">
        <lane id=":D66_3_0" index="0" disallow="tram rail_urban rail rail_electric rail_fast ship container cable_car subway aircraft wheelchair scooter drone" speed="8.33" length="12.70" shape="773.49,478.98 773.99,482.89 774.01,485.79 773.98,488.45 774.36,491.62"/>
    </edge>
    <edge id=":D66_4" function="internal">
        <lane id=":D66_4_0" index="0" disallow="tram rail_urban rail rail_electric rail_fast ship container cable_car subway aircraft wheelchair scooter drone" speed="5.87" length="6.83" shape="770.35,479.59 770.40,481.31 769.81,482.70 768.59,483.76 766.74,484.48"/>
    </edge>
    <edge id=":E111_0" function="internal">
        <lane id=":E111_0_0" index="0" disallow="tram rail_urban rail rail_electric rail_fast ship container cable_car subway aircraft wheelchair scooter drone" speed="6.75" length="10.17" shape="750.65,368.43 751.47,370.80 753.04,372.28 755.37,372.89 758.45,372.61"/>
    </edge>
    <edge id=":E111_1" function="internal">
        <lane id=":E111_1_0" index="0" disallow="tram rail_urban rail rail_electric rail_fast ship container cable_car subway aircraft wheelchair scooter drone" speed="8.33" length="14.52" shape="750.65,368.43 751.42,371.69 752.45,374.57 753.60,377.85 754.70,382.33"/>
        <lane id=":E111_1_1" index="1" disallow="tram rail_urban rail rail_electric rail_fast ship container cable_car subway aircraft wheelchair scooter drone" speed="8.33" length="14.52" shape="750.65,368.43 750.93,371.78 750.88,374.86 750.94,378.35 751.55,382.93"/>
    </edge>
    <edge id=":E111_3" function="internal">
        <lane id=":E111_3_0" index="0" disallow="tram rail_urban rail rail_electric rail_fast ship container cable_car subway aircraft wheelchair scooter drone" speed="9.72" length="13.29" shape="745.43,375.67 758.45,372.61"/>
        <lane id=":E111_3_1" index="1" disallow="tram rail_urban rail rail_electric rail_fast ship container cable_car subway aircraft wheelchair scooter drone" speed="9.72" length="13.29" shape="746.26,378.77 759.11,375.74"/>
    </edge>
    <edge id=":E111_5" function="internal">
        <lane id=":E111_5_0" index="0" disallow="tram rail_urban rail rail_electric rail_fast ship container cable_car subway aircraft wheelchair scooter drone" speed="5.95" length="7.78" shape="746.26,378.77 748.20,378.60 749.72,379.23 750.84,380.68 751.55,382.93"/>
    </edge>
    <edge id=":G111_0" function="internal">
        <lane id=":G111_0_0" index="0" disallow="tram rail_urban rail rail_electric rail_fast ship container cable_car subway aircraft wheelchair scooter drone" speed="8.33" length="13.40" shape="657.56,408.74 657.02,404.57 657.00,401.45 657.06,398.63 656.76,395.38"/>
    </edge>
    <edge id=":G111_1" function="internal">
        <lane id=":G111_1_0" index="0" disallow="tram rail_urban rail rail_electric rail_fast ship container cable_car subway aircraft wheelchair scooter drone" speed="6.38" length="8.14" shape="660.70,408.13 660.59,405.92 661.19,404.16 662.50,402.84 664.53,401.97"/>
    </edge>
    <edge id=":G111_2" function="internal">
        <lane id=":G111_2_0" index="0" disallow="tram rail_urban rail rail_electric rail_fast ship container cable_car subway aircraft wheelchair scooter drone" speed="7.66" length="11.49" shape="651.36,404.24 654.16,402.89 655.99,400.97 656.86,398.46 656.76,395.38"/>
    </edge>
    <edge id=":G111_3" function="internal">
        <lane id=":G111_3_0" index="0" disallow="tram rail_urban rail rail_electric rail_fast ship container cable_car subway aircraft wheelchair scooter drone" speed="8.33" length="13.43" shape="651.36,404.24 654.39,403.00 656.88,401.65 659.70,400.25 663.69,398.88"/>
        <lane id=":G111_3_1" index="1" disallow="tram rail_urban rail rail_electric rail_fast ship container cable_car subway aircraft wheelchair scooter drone" speed="8.33" length="13.43" shape="651.36,404.24 654.52,403.48 657.32,403.19 660.43,402.85 664.53,401.97"/>
    </edge>

    <edge id="1053199270" from="12013799494" to="12013799525" priority="1" type="highway.footway" spreadType="center">
        <lane id="1053199270_0" index="0" allow="pedestrian" speed="2.78" length="1.83" width="2.00" shape="745.95,384.03 745.61,382.23"/>
    </edge>
    <edge id="1081353722#1" from="12013799516" to="12013799519" priority="1" type="highway.footway" spreadType="center" shape="704.19,439.53 703.94,439.82 703.12,441.14 702.06,444.05 701.85,447.15 702.01,448.07">
        <lane id="1081353722#1_0" index="0" allow="pedestrian" speed="2.78" length="3.99" width="2.00" shape="702.89,441.78 702.06,444.05 701.95,445.63"/>
    </edge>
    <edge id="1081353722#2" from="12013799519" to="12013799515" priority="1" type="highway.footway" spreadType="center" shape="702.01,448.07 702.19,449.14 702.50,450.11 703.04,451.35 704.00,452.88 706.17,455.09 707.51,455.85">
        <lane id="1081353722#2_0" index="0" allow="pedestrian" speed="2.78" length="4.86" width="2.00" shape="702.68,450.52 703.04,451.35 704.00,452.88 705.50,454.41"/>
    </edge>
    <edge id="1081353722#3" from="12013799515" to="12013799514" priority="1" type="highway.footway" spreadType="center" shape="707.51,455.85 708.87,456.61 711.89,457.35 714.99,457.22 715.53,457.04">
        <lane id="1081353722#3_0" index="0" allow="pedestrian" speed="2.78" length="3.22" width="2.00" shape="709.78,456.83 711.89,457.35 712.93,457.31"/>
    </edge>
    <edge id="1081353722#4" from="12013799514" to="12013799517" priority="1" type="highway.footway" spreadType="center" shape="715.53,457.04 717.95,456.24 720.60,454.41 722.49,452.11 722.55,451.97">
        <lane id="1081353722#4_0" index="0" allow="pedestrian" speed="2.78" length="3.81" width="2.00" shape="717.80,456.29 717.95,456.24 720.60,454.41 720.87,454.08"/>
    </edge>
    <edge id="1081353722#5" from="12013799517" to="12013799488" priority="1" type="highway.footway" spreadType="center" shape="722.55,451.97 723.82,448.93 724.13,445.73 723.86,443.84 723.74,443.40">
        <lane id="1081353722#5_0" index="0" allow="pedestrian" speed="2.78" length="4.00" width="2.00" shape="723.44,449.83 723.82,448.93 724.11,445.92"/>
    </edge>
    <edge id="1081353722#6" from="12013799488" to="12013799489" priority="1" type="highway.footway" spreadType="center" shape="723.74,443.40 723.25,441.99 722.70,440.89 722.07,439.89 719.67,437.45 718.30,436.58">
        <lane id="1081353722#6_0" index="0" allow="pedestrian" speed="2.78" length="4.12" width="2.00" shape="722.85,441.19 722.70,440.89 722.07,439.89 720.25,438.04"/>
    </edge>
    <edge id="1081353722#7" from="12013799489" to="12013799518" priority="1" type="highway.footway" spreadType="center" shape="718.30,436.58 716.42,435.77 713.25,435.24 711.16,435.46">
        <lane id="1081353722#7_0" index="0" allow="pedestrian" speed="2.78" length="2.55" width="2.00" shape="716.07,435.71 713.56,435.29"/>
    </edge>
    <edge id="1081353722#8" from="12013799518" to="12013799516" priority="1" type="highway.footway" spreadType="center" shape="711.16,435.46 710.43,435.53 708.66,436.11 707.42,436.72 704.95,438.62 704.19,439.53">
        <lane id="1081353722#8_0" index="0" allow="pedestrian" speed="2.78" length="3.28" width="2.00" shape="708.66,436.11 707.42,436.72 705.91,437.88"/>
    </edge>
    <edge id="1175780997" from="10925325516" to="10925325517" priority="1" type="highway.pedestrian" spreadType="center">
        <lane id="1175780997_0" index="0" allow="pedestrian" speed="2.78" length="13.31" width="2.00" shape="620.82,474.19 623.53,487.22"/>
    </edge>
    <edge id="1296513962#0" from="12013799512" to="12013799504" priority="1" type="highway.footway" spreadType="center" shape="733.94,491.90 733.74,491.16 732.66,487.56 730.49,484.48 727.58,482.30 724.15,481.10 720.53,480.99">
        <lane id="1296513962#0_0" index="0" allow="pedestrian" speed="2.78" length="16.90" width="2.00" shape="733.94,491.90 733.74,491.16 732.66,487.56 730.49,484.48 727.58,482.30 724.15,481.10 722.82,481.06"/>
    </edge>
    <edge id="1296513962#1" from="12013799504" to="12013799513" priority="1" type="highway.footway" spreadType="center" shape="720.53,480.99 717.03,481.98 714.00,483.96 711.72,486.78 710.39,490.13 710.17,493.74 711.04,497.24 711.20,497.92">
        <lane id="1296513962#1_0" index="0" allow="pedestrian" speed="2.78" length="19.98" width="2.00" shape="718.19,481.65 717.03,481.98 714.00,483.96 711.72,486.78 710.39,490.13 710.17,493.74 711.04,497.24 711.20,497.92"/>
    </edge>
    <edge id="1296513963" from="12013799504" to="12013799514" priority="1" type="highway.footway" spreadType="center">
        <lane id="1296513963_0" index="0" allow="pedestrian" speed="2.78" length="19.53" width="2.00" shape="720.03,478.61 716.04,459.49"/>
    </edge>
    <edge id="1296513964" from="3781991258" to="12013799515" priority="1" type="highway.footway" spreadType="center">
        <lane id="1296513964_0" index="0" allow="pedestrian" speed="2.78" length="46.84" width="2.00" shape="683.34,498.87 706.29,458.03"/>
    </edge>
    <edge id="1296513965" from="12013799494" to="12013799489" priority="1" type="highway.footway" spreadType="center">
        <lane id="1296513965_0" index="0" allow="pedestrian" speed="2.78" length="53.02" width="2.00" shape="745.47,388.22 719.50,434.45"/>
    </edge>
    <edge id="1296513966" from="12013799495" to="12013799516" priority="1" type="highway.footway" spreadType="center">
        <lane id="1296513966_0" index="0" allow="pedestrian" speed="2.78" length="46.95" width="2.00" shape="663.16,411.89 702.10,438.12"/>
    </edge>
    <edge id="1296513967" from="12013799517" to="5459440901" priority="1" type="highway.footway" spreadType="center">
        <lane id="1296513967_0" index="0" allow="pedestrian" speed="2.78" length="45.62" width="2.00" shape="724.58,453.34 762.42,478.83"/>
    </edge>
    <edge id="1296513968" from="12013799497" to="12013799518" priority="1" type="highway.footway" spreadType="center">
        <lane id="1296513968_0" index="0" allow="pedestrian" speed="2.78" length="39.61" width="2.00" shape="703.03,394.09 710.67,432.96"/>
    </edge>
    <edge id="1296513969" from="12013799524" to="12013799519" priority="1" type="highway.footway" spreadType="center" shape="668.20,455.36 668.94,455.21 702.01,448.07">
        <lane id="1296513969_0" index="0" allow="pedestrian" speed="2.78" length="27.33" width="2.00" shape="672.81,454.38 699.52,448.61"/>
    </edge>
    <edge id="1296513970" from="12013799488" to="12013799521" priority="1" type="highway.footway" spreadType="center" shape="723.74,443.40 760.59,435.46 763.19,434.89">
        <lane id="1296513970_0" index="0" allow="pedestrian" speed="2.78" length="33.15" width="2.00" shape="726.17,442.88 758.58,435.89"/>
    </edge>
    <edge id="1296513971" from="3781991258" to="12013799530" priority="1" type="highway.footway" spreadType="center">
        <lane id="1296513971_0" index="0" allow="pedestrian" speed="2.78" length="0.20" width="2.00" shape="680.95,500.88 680.75,500.93"/>
    </edge>
    <edge id="1296513972" from="9511769084" to="12013799523" priority="1" type="highway.footway" spreadType="center">
        <lane id="1296513972_0" index="0" allow="pedestrian" speed="2.78" length="0.20" width="2.00" shape="663.27,414.34 663.07,414.35"/>
    </edge>
    <edge id="304456533" from="12013799526" to="12013799494" priority="1" type="highway.footway" spreadType="center">
        <lane id="304456533_0" index="0" allow="pedestrian" speed="2.78" length="0.10" width="2.00" shape="748.93,385.93 748.83,385.96"/>
    </edge>
    <edge id="337277951#0" from="A39" to="12013799530" priority="3" type="highway.residential" spreadType="center">
        <lane id="337277951#0_0" index="0" disallow="tram rail_urban rail rail_electric rail_fast ship container cable_car subway aircraft wheelchair scooter drone" speed="8.33" length="0.20" shape="675.80,503.16 675.76,502.96"/>
        <lane id="337277951#0_1" index="1" disallow="tram rail_urban rail rail_electric rail_fast ship container cable_car subway aircraft wheelchair scooter drone" speed="8.33" length="0.20" shape="678.94,502.55 678.90,502.35"/>
    </edge>
    <edge id="337277970#0" from="D66" to="12013799527" priority="3" type="highway.residential" spreadType="center">
        <lane id="337277970#0_0" index="0" disallow="tram rail_urban rail rail_electric rail_fast ship container cable_car subway aircraft wheelchair scooter drone" speed="8.33" length="0.20" shape="767.53,487.58 767.34,487.63"/>
        <lane id="337277970#0_1" index="1" disallow="tram rail_urban rail rail_electric rail_fast ship container cable_car subway aircraft wheelchair scooter drone" speed="8.33" length="0.20" shape="766.74,484.48 766.55,484.53"/>
    </edge>
    <edge id="337277970#2" from="12013799529" to="A39" priority="3" type="highway.residential" spreadType="center">
        <lane id="337277970#2_0" index="0" disallow="tram rail_urban rail rail_electric rail_fast ship container cable_car subway aircraft wheelchair scooter drone" speed="8.33" length="0.20" shape="684.07,508.91 683.87,508.96"/>
        <lane id="337277970#2_1" index="1" disallow="tram rail_urban rail rail_electric rail_fast ship container cable_car subway aircraft wheelchair scooter drone" speed="8.33" length="0.20" shape="683.27,505.81 683.08,505.86"/>
    </edge>
    <edge id="402944900" from="H00" to="4053431578" priority="1" type="highway.footway" spreadType="center">
        <lane id="402944900_0" index="0" allow="pedestrian" speed="2.78" length="2.31" width="2.00" shape="584.85,417.16 585.18,419.44"/>
    </edge>
    <edge id="48903210#0" from="620530033" to="10925325516" priority="1" type="highway.pedestrian" spreadType="center">
        <lane id="48903210#0_0" index="0" allow="pedestrian" speed="2.78" length="59.19" width="2.00" shape="559.71,483.22 617.87,472.21"/>
    </edge>
    <edge id="48903210#1" from="10925325516" to="620530034" priority="1" type="highway.pedestrian" spreadType="center">
        <lane id="48903210#1_0" index="0" allow="pedestrian" speed="2.78" length="42.92" width="2.00" shape="622.74,471.22 664.67,462.04"/>
    </edge>
    <edge id="567060312" from="5459440901" to="12013799527" priority="1" type="highway.footway" spreadType="center">
        <lane id="567060312_0" index="0" allow="pedestrian" speed="2.78" length="0.20" width="2.00" shape="764.40,481.97 764.43,482.17"/>
    </edge>
    <edge id="567060313" from="5459440901" to="12013799528" priority="1" type="highway.footway" spreadType="center">
        <lane id="567060313_0" index="0" allow="pedestrian" speed="2.78" length="0.68" width="2.00" shape="766.39,479.33 767.05,479.17"/>
    </edge>
    <edge id="567060325" from="3781991258" to="12013799529" priority="1" type="highway.footway" spreadType="center">
        <lane id="567060325_0" index="0" allow="pedestrian" speed="2.78" length="0.38" width="2.00" shape="682.81,502.67 682.88,503.04"/>
    </edge>
    <edge id="567060333" from="3781990959" to="12013799485" priority="1" type="highway.footway" spreadType="center">
        <lane id="567060333_0" index="0" allow="pedestrian" speed="2.78" length="0.10" width="2.00" shape="668.94,404.06 668.92,403.96"/>
    </edge>
    <edge id="bolivar10" from="D55" to="D66" priority="3" type="highway.residential" spreadType="center" shape="882.47,457.04 781.19,482.73 772.94,484.55">
        <lane id="bolivar10_0" index="0" disallow="tram rail_urban rail rail_electric rail_fast ship container cable_car subway aircraft wheelchair scooter drone" speed="8.33" length="105.77" shape="882.47,457.04 781.19,482.73 779.94,483.01"/>
    </edge>
    <edge id="bolivar8" from="A39" to="A40" priority="3" type="highway.residential" spreadType="center">
        <lane id="bolivar8_0" index="0" disallow="tram rail_urban rail rail_electric rail_fast ship container cable_car subway aircraft wheelchair scooter drone" speed="8.33" length="98.24" shape="672.00,511.88 576.44,534.70"/>
        <lane id="bolivar8_1" index="1" disallow="tram rail_urban rail rail_electric rail_fast ship container cable_car subway aircraft wheelchair scooter drone" speed="8.33" length="98.24" shape="671.26,508.76 575.70,531.58"/>
    </edge>
    <edge id="bolivar9" from="12013799527" to="12013799529" priority="3" type="highway.residential" spreadType="center">
        <lane id="bolivar9_0" index="0" disallow="tram rail_urban rail rail_electric rail_fast ship container cable_car subway aircraft wheelchair scooter drone" speed="8.33" length="79.16" shape="763.41,488.63 686.72,508.23"/>
        <lane id="bolivar9_1" index="1" disallow="tram rail_urban rail rail_electric rail_fast ship container cable_car subway aircraft wheelchair scooter drone" speed="8.33" length="79.16" shape="762.62,485.53 685.93,505.13"/>
    </edge>
    <edge id="central4#3" from="12013799528" to="D66" priority="3" type="highway.residential" spreadType="center">
        <lane id="central4#3_0" index="0" disallow="tram rail_urban rail rail_electric rail_fast ship container cable_car subway aircraft wheelchair scooter drone" speed="8.33" length="0.20" shape="773.45,478.78 773.49,478.98"/>
        <lane id="central4#3_1" index="1" disallow="tram rail_urban rail rail_electric rail_fast ship container cable_car subway aircraft wheelchair scooter drone" speed="8.33" length="0.20" shape="770.31,479.39 770.35,479.59"/>
    </edge>
    <edge id="cordero0" from="D66" to="7972079261" priority="3" type="highway.residential" spreadType="center" shape="772.94,484.55 774.41,491.88 780.79,522.69 782.80,533.81 793.32,589.24">
        <lane id="cordero0_0" index="0" disallow="tram rail_urban rail rail_electric rail_fast ship container cable_car subway aircraft wheelchair scooter drone" speed="8.33" length="99.45" shape="774.36,491.62 774.41,491.88 780.79,522.69 782.80,533.81 793.32,589.24"/>
    </edge>
    <edge id="cordero1" from="12013799521" to="12013799528" priority="3" type="highway.residential" spreadType="center">
        <lane id="cordero1_0" index="0" disallow="tram rail_urban rail rail_electric rail_fast ship container cable_car subway aircraft wheelchair scooter drone" speed="8.33" length="39.05" shape="765.26,437.10 772.79,475.41"/>
        <lane id="cordero1_1" index="1" disallow="tram rail_urban rail rail_electric rail_fast ship container cable_car subway aircraft wheelchair scooter drone" speed="8.33" length="39.05" shape="762.12,437.72 769.65,476.03"/>
    </edge>
    <edge id="cordero2" from="12013799526" to="12013799521" priority="3" type="highway.residential" spreadType="center">
        <lane id="cordero2_0" index="0" disallow="tram rail_urban rail rail_electric rail_fast ship container cable_car subway aircraft wheelchair scooter drone" speed="8.33" length="45.91" shape="755.62,387.13 764.30,432.21"/>
        <lane id="cordero2_1" index="1" disallow="tram rail_urban rail rail_electric rail_fast ship container cable_car subway aircraft wheelchair scooter drone" speed="8.33" length="45.91" shape="752.48,387.73 761.16,432.82"/>
    </edge>
    <edge id="cordero3" from="E111" to="12013799526" priority="3" type="highway.residential" spreadType="center">
        <lane id="cordero3_0" index="0" disallow="tram rail_urban rail rail_electric rail_fast ship container cable_car subway aircraft wheelchair scooter drone" speed="8.33" length="0.20" shape="754.70,382.33 754.73,382.52"/>