<?xml version="1.0" encoding="UTF-8"?>

<!-- generated on 2025-04-09 00:54:40 by Eclipse SUMO sumo Version 1.20.0
-->

<configuration xmlns:xsi="http://www.w3.org/2001/XMLSchema-instance" xsi:noNamespaceSchemaLocation="http://sumo.dlr.de/xsd/sumoConfiguration.xsd">

    <input>
        <net-file value="mapa.net.xml"/>
        <route-files value="trafico2.rou.xml"/>
    </input>

</configuration>
